final/Texas2k_series24_cases_with_dynamics/Texas2k_series24_case5_2024highrenewables/Texas2k_series24_case5_2024highrenewables.EPC
title
Texas2k_series24_case5_2024highrenewables
This is a synthetic power system model that does NOT represent the actual grid. 
It was developed at Texas A&M University and contains no CEII.
[1] A.B. Birchfield, T. Xu, K.M. Gegner, K.S. Shetye, and T.J. Overbye,
 "Grid Structural Characteristics as Validation Criteria for Synthetic Networks,"
 IEEE Transactions on Power Systems, vol. 32, no. 4, pp. 3258-3265, July 2017.
[2] J. Baek and A. B. Birchfield, “A tuning method for exciters and governors 
 in realistic synthetic grids with dynamics,” 2023 North American Power 
 Symposium (NAPS), Asheville, NC, USA, Oct. 2023, pp. 1-6.
!
comments
!
solution parameters
tap    1    tcul  enabled/disabled
phas   1    ps    enabled/disabled
area   1    area  enabled/disabled
svd    1    svd   enabled/disabled
dctap  1    dc    enabled/disabled
gcd    0    gcd   enabled/disabled
jump  0.000200    jumper threshold
toler   0.1000    newton tolerance
sbase 100.0000    system mva base
!
substation data  [ 1250]           no  name
      1  "ODESSA 2"    : 31.906736 -102.262348 0.090000  " "
      2  "PRESIDIO 2"    : 29.888046 -104.519139 0.145000  " "
      3  "O DONNELL 1"    : 32.926389 -101.647778 0.111000  " "
      4  "BIG SPRING 5"    : 32.207500 -101.388333 0.290000  " "
      5  "VAN HORN"    : 31.093480 -104.624514 0.350000  " "
      6  "IRAAN 2"    : 30.931467 -102.201433 0.014000  " "
      7  "PRESIDIO 1"    : 29.600000 -104.300000 0.116000  " "
      8  "SANDERSON"    : 30.028067 -101.970461 0.400000  " "
      9  "MONAHANS 2"    : 31.484586 -103.161046 0.280000  " "
     10  "GRANDFALLS"    : 31.169523 -103.085134 0.940000  " "
     11  "MARFA"    : 30.285296 -104.005761 0.069000  " "
     12  "GARDEN CITY"    : 31.763075 -101.501775 0.094000  " "
     13  "ODESSA 4"    : 31.725171 -102.413607 0.114000  " "
     14  "NOTREES"    : 31.799171 -102.632933 0.590000  " "
     15  "MIDLAND 4"    : 31.979427 -102.132366 2.350000  " "
     16  "BIG SPRING 1"    : 31.992500 -101.116700 0.171000  " "
     17  "O DONNELL 2"    : 32.929014 -101.578617 0.136000  " "
     18  "ODESSA 6"    : 31.969312 -102.630882 0.079000  " "
     19  "BIG SPRINGS"    : 32.039000 -101.220000 0.910000  " "
     20  "MIDLAND 2"    : 32.321673 -102.042298 0.113000  " "
     21  "COAHOMA"    : 32.879511 -101.246784 0.220000  " "
     22  "MIDLAND 3"    : 31.992384 -102.081464 0.230000  " "
     23  "ALPINE"    : 29.802094 -103.222360 0.290000  " "
     24  "FORT DAVIS"    : 31.004969 -103.759065 0.610000  " "
     25  "MCCAMEY 1"    : 31.209200 -102.241700 0.440000  " "
     26  "BIG SPRING 4"    : 31.991442 -101.302637 0.079000  " "
     27  "CRANE"    : 31.186888 -102.596253 0.230000  " "
     28  "ODESSA 5"    : 31.799158 -102.474090 2.510000  " "
     29  "FORT STOCKTON 1"    : 30.772575 -102.505808 0.380000  " "
     30  "ANDREWS"    : 32.335729 -102.697303 1.690000  " "
     31  "FORSAN"    : 32.140800 -101.398600 1.560000  " "
     32  "BIG LAKE"    : 31.272551 -101.172783 0.010000  " "
     33  "MIDLAND 5"    : 32.053604 -102.201660 0.078000  " "
     34  "OZONA"    : 30.575618 -101.331239 0.330000  " "
     35  "MONAHANS 1"    : 31.583900 -102.963300 0.132000  " "
     36  "STANTON"    : 32.489818 -101.754488 0.490000  " "
     37  "ODONNELL"    : 32.927010 -101.764414 0.410000  " "
     38  "LENORAH"    : 32.235300 -101.836700 0.188000  " "
     39  "IRAAN 3"    : 30.884700 -101.920800 0.094000  " "
     40  "BIG SPRING 6"    : 32.273182 -101.422436 0.164000  " "
     41  "ODESSA 3"    : 32.001129 -102.312423 0.530000  " "
     42  "BIG SPRING 3"    : 32.100823 -101.451385 0.400000  " "
     43  "BIG SPRING 7"    : 32.102911 -101.365434 0.430000  " "
     44  "MIDLAND 1"    : 31.517628 -101.918007 0.320000  " "
     45  "IRAAN 1"    : 30.917800 -102.086700 0.118000  " "
     46  "ODESSA 1"    : 31.840300 -102.326400 0.028000  " "
     47  "FORT STOCKTON 2"    : 30.807272 -102.355628 0.240000  " "
     48  "FORT STOCKTON 3"    : 30.747459 -102.790792 0.280000  " "
     49  "BIG SPRING 2"    : 31.936100 -101.298300 0.178000  " "
     50  "KERMIT"    : 31.696251 -103.138992 0.113000  " "
     51  "PECOS"    : 31.803547 -103.599914 3.270000  " "
     52  "SHEFFIELD"    : 30.596998 -101.784530 0.066000  " "
     53  "MCCAMEY 2"    : 31.139200 -102.225300 0.154000  " "
     54  "LAMESA"    : 32.929648 -102.133506 0.850000  " "
     55  "GOLDSMITH"    : 31.995000 -102.828333 2.180000  " "
     56  "RALLS 2"    : 33.658671 -101.531037 3.020000  " "
     57  "PARIS 3"    : 33.683869 -95.344733 0.066000  " "
     58  "SAVOY"    : 33.628143 -96.367605 0.062000  " "
     59  "HONEY GROVE"    : 33.615167 -95.900109 0.092000  " "
     60  "MEMPHIS"    : 34.857258 -100.512868 0.690000  " "
     61  "IOWA PARK"    : 33.973297 -98.721096 0.024000  " "
     62  "VERNON 2"    : 33.899813 -99.773497 1.950000  " "
     63  "PANHANDLE 2"    : 35.238333 -101.310833 0.400000  " "
     64  "CHILDRESS"    : 34.447226 -100.809848 1.180000  " "
     65  "FORESTBURG"    : 33.471617 -97.445189 0.370000  " "
     66  "SHERMAN 3"    : 33.627623 -96.767394 0.390000  " "
     67  "PANHANDLE 4"    : 35.427500 -101.253056 0.077000  " "
     68  "WICHITA FALLS 6"    : 33.943784 -98.523064 0.163000  " "
     69  "PARIS 2"    : 33.696800 -95.557700 0.240000  " "
     70  "WICHITA FALLS 4"    : 33.864515 -98.491046 3.260000  " "
     71  "WHEELER"    : 35.830763 -100.765905 0.064000  " "
     72  "DEPORT"    : 33.482646 -95.320088 0.260000  " "
     73  "WICHITA FALLS 3"    : 34.004783 -98.388757 0.260000  " "
     74  "SILVERTON"    : 34.457478 -101.287161 0.045000  " "
     75  "BONHAM"    : 33.708311 -96.240654 4.970000  " "
     76  "MATADOR"    : 33.710684 -100.384217 0.490000  " "
     77  "ARTHUR CITY"    : 33.857868 -95.649137 0.128000  " "
     78  "LEONARD"    : 33.441440 -96.179163 0.240000  " "
     79  "GORDONVILLE"    : 33.830932 -96.839764 0.172000  " "
     80  "KNOX CITY"    : 33.431837 -99.853667 7.800000  " "
     81  "WICHITA FALLS 7"    : 33.894941 -98.543670 0.970000  " "
     82  "LINDSAY"    : 33.615855 -97.310834 0.091000  " "
     83  "ECTOR"    : 33.553520 -96.282897 0.080000  " "
     84  "SUNSET"    : 33.455991 -97.751818 0.147000  " "
     85  "CLARKSVILLE"    : 33.663063 -94.997258 0.340000  " "
     86  "PANHANDLE 3"    : 35.386038 -101.578572 0.176000  " "
     87  "SADLER"    : 33.737974 -96.839543 0.800000  " "
     88  "WHITESBORO"    : 33.743893 -96.936121 1.980000  " "
     89  "SHEPPARD AFB"    : 33.969523 -98.509016 0.020000  " "
     90  "POTTSBORO"    : 33.800717 -96.725989 0.220000  " "
     91  "BELLS"    : 33.623645 -96.427874 0.560000  " "
     92  "CROSBYTON"    : 33.774479 -100.990114 0.060000  " "
     93  "ELECTRA"    : 34.131688 -99.106624 0.440000  " "
     94  "PATTONVILLE"    : 33.402250 -95.483203 0.310000  " "
     95  "HENRIETTA"    : 33.758490 -98.202251 0.151000  " "
     96  "PANHANDLE 6"    : 34.900760 -100.994549 0.070000  " "
     97  "BOWIE"    : 33.520572 -97.956120 0.450000  " "
     98  "WICHITA FALLS 1"    : 33.913300 -98.493100 0.350000  " "
     99  "WHITE DEER"    : 35.478900 -101.243900 0.153000  " "
    100  "ROXTON"    : 33.576823 -95.809701 0.330000  " "
    101  "VERNON 1"    : 34.290000 -99.364722 0.470000  " "
    102  "DENISON 2"    : 33.770785 -96.604061 0.074000  " "
    103  "SUMNER"    : 33.745236 -95.744327 1.210000  " "
    104  "GAINESVILLE"    : 33.661583 -97.176350 0.022000  " "
    105  "ASPERMONT"    : 33.183064 -100.245133 0.490000  " "
    106  "WICHITA FALLS 5"    : 33.799085 -98.509840 0.260000  " "
    107  "WINDTHORST"    : 33.512628 -98.457627 2.320000  " "
    108  "HOWE"    : 33.450768 -96.742245 0.152000  " "
    109  "ARCHER 2"    : 33.493056 -98.581944 0.250000  " "
    110  "COLLINSVILLE"    : 33.537706 -96.906575 0.670000  " "
    111  "JAYTON"    : 32.969722 -100.524167 0.049000  " "
    112  "MUENSTER 1"    : 33.733006 -97.428406 0.084000  " "
    113  "PADUCAH"    : 33.994322 -100.287247 0.270000  " "
    114  "NOCONA"    : 33.793074 -97.963802 0.095000  " "
    115  "DODD CITY"    : 33.615539 -96.072156 0.181000  " "
    116  "WICHITA FALLS 2"    : 33.862500 -98.589400 0.084000  " "
    117  "MONTAGUE"    : 33.626904 -97.687873 0.720000  " "
    118  "SPUR"    : 33.341053 -100.714732 0.420000  " "
    119  "ARCHER 1"    : 33.495278 -98.500000 0.340000  " "
    120  "ANNONA"    : 33.498221 -94.890845 0.099000  " "
    121  "SEYMOUR"    : 33.621145 -99.243765 0.128000  " "
    122  "DENISON 1"    : 33.727126 -96.470794 0.590000  " "
    123  "PANHANDLE 5"    : 35.350300 -101.540000 0.114000  " "
    124  "RALLS 1"    : 33.661111 -101.390000 0.420000  " "
    125  "SHERMAN 1"    : 33.582573 -96.617893 0.560000  " "
    126  "WHITEWRIGHT"    : 33.494577 -96.396115 0.280000  " "
    127  "SHERMAN 2"    : 33.604131 -96.550405 0.440000  " "
    128  "ROCHESTER"    : 33.322836 -99.642126 2.990000  " "
    129  "BURKBURNETT"    : 34.103273 -98.622467 0.820000  " "
    130  "MUENSTER 2"    : 33.682081 -97.382855 0.740000  " "
    131  "ARCHER CITY"    : 33.527396 -98.884782 0.220000  " "
    132  "PETROLIA"    : 34.008308 -98.259320 0.890000  " "
    133  "PARIS 1"    : 33.630800 -95.590000 0.330000  " "
    134  "BAGWELL"    : 33.801868 -95.151966 0.210000  " "
    135  "TELEPHONE"    : 33.778716 -95.996823 0.480000  " "
    136  "PANHANDLE 1"    : 35.442778 -101.372778 2.140000  " "
    137  "VAN ALSTYNE"    : 33.435660 -96.549913 0.390000  " "
    138  "TIOGA"    : 33.464643 -96.892724 0.460000  " "
    139  "VALLEY VIEW"    : 33.458028 -97.128552 0.860000  " "
    140  "MIAMI"    : 35.653889 -100.538611 0.640000  " "
    141  "TRENTON"    : 33.439125 -96.311485 0.091000  " "
    142  "HASKELL"    : 33.122685 -99.650389 3.260000  " "
    143  "SAINT JO"    : 33.741367 -97.535329 0.011000  " "
    144  "KERRVILLE"    : 30.036701 -99.163039 2.530000  " "
    145  "SWEETWATER 4"    : 32.360600 -100.338900 0.450000  " "
    146  "LEAKEY"    : 29.644470 -99.682471 0.120000  " "
    147  "HAMLIN"    : 32.857004 -100.124032 0.082000  " "
    148  "MERKEL 3"    : 32.473621 -100.032723 0.380000  " "
    149  "COLEMAN"    : 31.736902 -99.567791 0.290000  " "
    150  "SONORA"    : 30.441414 -100.560620 0.460000  " "
    151  "CAMP WOOD"    : 29.674700 -100.078588 0.061000  " "
    152  "LLANO"    : 30.653746 -98.918266 0.690000  " "
    153  "WILLOW CITY"    : 30.437069 -98.708714 0.090000  " "
    154  "ABILENE 4"    : 32.335677 -99.667488 0.148000  " "
    155  "KINGSLAND"    : 30.672818 -98.442748 0.830000  " "
    156  "ROSCOE 6"    : 32.415212 -100.573539 0.191000  " "
    157  "BLACKWELL"    : 32.198100 -100.268600 0.097000  " "
    158  "CHRISTOVAL"    : 31.085435 -100.678820 0.035000  " "
    159  "LUEDERS"    : 32.868619 -99.694492 0.290000  " "
    160  "COLORADO CITY"    : 32.314505 -100.918356 0.400000  " "
    161  "STAMFORD"    : 32.940911 -99.850964 0.310000  " "
    162  "ELDORADO"    : 30.883539 -100.595464 0.490000  " "
    163  "SAN SABA"    : 31.157093 -98.763991 0.097000  " "
    164  "ABILENE 2"    : 32.625600 -99.492800 4.580000  " "
    165  "LOMETA"    : 31.257224 -98.376742 0.710000  " "
    166  "SAN ANGELO 1"    : 31.509720 -100.322075 0.199000  " "
    167  "TUSCOLA"    : 32.274081 -99.826041 0.012000  " "
    168  "ABILENE 7"    : 32.333551 -99.927724 0.031000  " "
    169  "SNYDER 1"    : 32.720400 -100.995200 4.600000  " "
    170  "CHEROKEE"    : 30.939820 -99.079893 0.360000  " "
    171  "RICHLAND SPRINGS"    : 31.517913 -99.135467 0.154000  " "
    172  "ROSCOE 2"    : 32.469400 -100.666400 0.270000  " "
    173  "BALLINGER"    : 31.738576 -99.934162 0.086000  " "
    174  "SILVER"    : 32.050000 -100.691700 0.157000  " "
    175  "ROSCOE 5"    : 32.312200 -100.530300 0.760000  " "
    176  "ANSON"    : 32.747863 -99.905394 0.033000  " "
    177  "DEL RIO"    : 29.837220 -101.212436 3.840000  " "
    178  "HUNT"    : 30.095115 -99.628211 0.330000  " "
    179  "WINGATE"    : 32.214024 -100.057120 0.184000  " "
    180  "STERLING CITY 1"    : 31.926100 -100.928100 0.124000  " "
    181  "ROSCOE 4"    : 32.236944 -100.483300 0.600000  " "
    182  "BRADY"    : 31.176951 -99.616412 0.098000  " "
    183  "TRENT 1"    : 32.430100 -100.235652 0.440000  " "
    184  "OVALO"    : 32.120249 -99.753027 0.014000  " "
    185  "NOLAN"    : 32.287800 -100.100000 0.570000  " "
    186  "MILES"    : 31.592013 -100.192616 0.066000  " "
    187  "BRACKETTVILLE 2"    : 29.234722 -100.209167 0.360000  " "
    188  "MASON"    : 30.843122 -99.570053 0.340000  " "
    189  "BRACKETTVILLE 3"    : 29.395621 -100.439985 0.126000  " "
    190  "ABILENE 6"    : 32.362783 -99.817314 0.320000  " "
    191  "HERMLEIGH"    : 32.588600 -100.672800 0.085000  " "
    192  "MERKEL 1"    : 32.318221 -100.176986 0.240000  " "
    193  "LORAINE 1"    : 32.437500 -100.744400 0.092000  " "
    194  "ABILENE 1"    : 32.514400 -99.656400 0.082000  " "
    195  "ROCKSPRINGS"    : 29.988092 -100.286076 0.084000  " "
    196  "MERKEL 2"    : 32.311556 -100.061589 0.320000  " "
    197  "FLUVANNA 2"    : 32.947930 -101.147784 4.260000  " "
    198  "DYESS AFB"    : 32.415823 -99.906230 0.064000  " "
    199  "HAWLEY"    : 32.630473 -99.830642 1.350000  " "
    200  "BUCHANAN DAM 2"    : 30.936768 -98.467066 0.210000  " "
...
bus data  [2000]               ty  vsched   volt     angle    ar zone  vmax   vmin   date_in date_out pid L own st  latitude  longitude island    sdmon   vmax1      vmin1      dvmax subst
   1001 "ODESSA 2 0  " 115.0000 " "  0  :  1 0.969300  0.969300  14.483679    1    9 1.1000 0.9000 19400101 21991231   0 0   1 0   0.000000   0.000000     0 0    1.10000    0.90000    0.00000 1 "ODESSA 2"     1 -1 " "  0  " " 
   1002 "PRESIDIO 2 0" 115.0000 " "  0  :  1 1.029047  1.029047  41.134955    1    9 1.1000 0.9000 19400101 21991231   0 0   1 0   0.000000   0.000000     0 0    1.10000    0.90000    0.00000 2 "PRESIDIO 2"     1 -1 " "  0  " " 
   1003 "O DONNELL ~1" 115.0000 " "  0  :  1 0.996649  0.996649  23.753037    1    9 1.1000 0.9000 19400101 21991231   0 0   1 0   0.000000   0.000000     0 0    1.10000    0.90000    0.00000 3 "O DONNELL 1"     1 -1 " "  0  " " 
   1004 "O DONNELL ~2" 230.0000 " "  0  :  2 1.010000 1.010000  16.851108    1    9 1.1000 0.9000 19400101 21991231   0 0   1 0   0.000000   0.000000     0 0    1.10000    0.90000    0.00000 3 "O DONNELL 1"     1 -1 " "  0  " " 
   1005 "BIG SPRING~8" 115.0000 " "  0  :  1 0.998095  0.998095  30.309346    1    9 1.1000 0.9000 19400101 21991231   0 0   1 0   0.000000   0.000000     0 0    1.10000    0.90000    0.00000 4 "BIG SPRING 5"     1 -1 " "  0  " " 
   1006 "BIG SPRING~9"  13.8000 " "  0  :  2 1.000000 1.000000  31.392471    1    9 1.1000 0.9000 19400101 21991231   0 0   1 0   0.000000   0.000000     0 0    1.10000    0.90000    0.00000 4 "BIG SPRING 5"     1 -1 " "  0  " " 
   1007 "VAN HORN 0  " 115.0000 " "  0  :  2 1.030000 1.029958  43.743165    1    9 1.1000 0.9000 19400101 21991231   0 0   1 0   0.000000   0.000000     0 0    1.10000    0.90000    0.00000 5 "VAN HORN"     1 -1 " "  0  " " 
   1008 "IRAAN 2 0   " 115.0000 " "  0  :  1 1.009377  1.009377  29.976114    1    9 1.1000 0.9000 19400101 21991231   0 0   1 0   0.000000   0.000000     0 0    1.10000    0.90000    0.00000 6 "IRAAN 2"     1 -1 " "  0  " " 
   1009 "IRAAN 2 1   "  13.8000 " "  0  :  2 1.000000 1.004750  31.646846    1    9 1.1000 0.9000 19400101 21991231   0 0   1 0   0.000000   0.000000     0 0    1.10000    0.90000    0.00000 6 "IRAAN 2"     1 -1 " "  0  " " 
   1010 "PRESIDIO 1 0" 115.0000 " "  0  :  1 1.030000 1.030000  40.890834    1    9 1.1000 0.9000 19400101 21991231   0 0   1 0   0.000000   0.000000     0 0    1.10000    0.90000    0.00000 7 "PRESIDIO 1"     1 -1 " "  0  " " 
   1011 "PRESIDIO 1 1"  22.0000 " "  0  :  2 1.000000 1.030218  42.643797    1    9 1.1000 0.9000 19400101 21991231   0 0   1 0   0.000000   0.000000     0 0    1.10000    0.90000    0.00000 7 "PRESIDIO 1"     1 -1 " "  0  " " 
   1012 "SANDERSON 0 " 115.0000 " "  0  :  1 1.030000 1.026831  16.628042    1    9 1.1000 0.9000 19400101 21991231   0 0   1 0   0.000000   0.000000     0 0    1.10000    0.90000    0.00000 8 "SANDERSON"     1 -1 " "  0  " " 
   1013 "MONAHANS 2 0" 115.0000 " "  0  :  1 0.994923  0.994923  28.812512    1    9 1.1000 0.9000 19400101 21991231   0 0   1 0   0.000000   0.000000     0 0    1.10000    0.90000    0.00000 9 "MONAHANS 2"     1 -1 " "  0  " " 
   1014 "GRANDFALLS 0" 115.0000 " "  0  :  1 0.999661  0.999661  30.168397    1    9 1.1000 0.9000 19400101 21991231   0 0   1 0   0.000000   0.000000     0 0    1.10000    0.90000    0.00000 10 "GRANDFALLS"     1 -1 " "  0  " " 
   1015 "MARFA 0     " 115.0000 " "  0  :  1 1.032792  1.032792  41.766261    1    9 1.1000 0.9000 19400101 21991231   0 0   1 0   0.000000   0.000000     0 0    1.10000    0.90000    0.00000 11 "MARFA"     1 -1 " "  0  " " 
   1016 "GARDEN CIT~1" 115.0000 " "  0  :  2 1.000000 1.000000  36.051286    1    9 1.1000 0.9000 19400101 21991231   0 0   1 0   0.000000   0.000000     0 0    1.10000    0.90000    0.00000 12 "GARDEN CITY"     1 -1 " "  0  " " 
   1017 "ODESSA 4 0  " 115.0000 " "  0  :  1 0.977213  0.977213  20.371583    1    9 1.1000 0.9000 19400101 21991231   0 0   1 0   0.000000   0.000000     0 0    1.10000    0.90000    0.00000 13 "ODESSA 4"     1 -1 " "  0  " " 
   1018 "NOTREES 0   " 115.0000 " "  0  :  1 0.988710  0.988710  21.786969    1    9 1.1000 0.9000 19400101 21991231   0 0   1 0   0.000000   0.000000     0 0    1.10000    0.90000    0.00000 14 "NOTREES"     1 -1 " "  0  " " 
   1019 "MIDLAND 4 0 " 115.0000 " "  0  :  1 1.030000 0.984539  17.230604    1    9 1.1000 0.9000 19400101 21991231   0 0   1 0   0.000000   0.000000     0 0    1.10000    0.90000    0.00000 15 "MIDLAND 4"     1 -1 " "  0  " " 
   1020 "BIG SPRING~1" 115.0000 " "  0  :  1 1.030000 1.000175  24.126916    1    9 1.1000 0.9000 19400101 21991231   0 0   1 0   0.000000   0.000000     0 0    1.10000    0.90000    0.00000 16 "BIG SPRING 1"     1 -1 " "  0  " " 
   1021 "BIG SPRING~2"  13.8000 " "  0  :  2 1.000000 1.000000  27.479104    1    9 1.1000 0.9000 19400101 21991231   0 0   1 0   0.000000   0.000000     0 0    1.10000    0.90000    0.00000 16 "BIG SPRING 1"     1 -1 " "  0  " " 
   1022 "O DONNELL ~3" 115.0000 " "  0  :  2 1.000000 1.001356  24.771500    1    9 1.1000 0.9000 19400101 21991231   0 0   1 0   0.000000   0.000000     0 0    1.10000    0.90000    0.00000 17 "O DONNELL 2"     1 -1 " "  0  " " 
   1023 "O DONNELL ~4"  13.8000 " "  0  :  2 1.010000 1.010000  31.902790    1    9 1.1000 0.9000 19400101 21991231   0 0   1 0   0.000000   0.000000     0 0    1.10000    0.90000    0.00000 17 "O DONNELL 2"     1 -1 " "  0  " " 
   1024 "ODESSA 6 0  " 115.0000 " "  0  :  1 0.993114  0.993114  22.973020    1    9 1.1000 0.9000 19400101 21991231   0 0   1 0   0.000000   0.000000     0 0    1.10000    0.90000    0.00000 18 "ODESSA 6"     1 -1 " "  0  " " 
   1025 "BIG SPRIN~14" 115.0000 " "  0  :  1 1.000135  1.000135  25.663299    1    9 1.1000 0.9000 19400101 21991231   0 0   1 0   0.000000   0.000000     0 0    1.10000    0.90000    0.00000 19 "BIG SPRINGS"     1 -1 " "  0  " " 
   1026 "BIG SPRIN~15"  13.8000 " "  0  :  2 1.000000 1.000000  30.482071    1    9 1.1000 0.9000 19400101 21991231   0 0   1 0   0.000000   0.000000     0 0    1.10000    0.90000    0.00000 19 "BIG SPRINGS"     1 -1 " "  0  " " 
   1027 "MIDLAND 2 0 " 115.0000 " "  0  :  2 1.030000 1.010522  22.524448    1    9 1.1000 0.9000 19400101 21991231   0 0   1 0   0.000000   0.000000     0 0    1.10000    0.90000    0.00000 20 "MIDLAND 2"     1 -1 " "  0  " " 
   1028 "COAHOMA 0   " 115.0000 " "  0  :  2 1.000000 1.000000  21.655584    1    9 1.1000 0.9000 19400101 21991231   0 0   1 0   0.000000   0.000000     0 0    1.10000    0.90000    0.00000 21 "COAHOMA"     1 -1 " "  0  " " 
   1029 "MIDLAND 3 0 " 115.0000 " "  0  :  2 1.000000 1.000000  23.462632    1    9 1.1000 0.9000 19400101 21991231   0 0   1 0   0.000000   0.000000     0 0    1.10000    0.90000    0.00000 22 "MIDLAND 3"     1 -1 " "  0  " " 
   1030 "ALPINE 0    " 115.0000 " "  0  :  2 1.000000 1.020338  37.196287    1    9 1.1000 0.9000 19400101 21991231   0 0   1 0   0.000000   0.000000     0 0    1.10000    0.90000    0.00000 23 "ALPINE"     1 -1 " "  0  " " 
   1031 "FORT DAVIS 0" 115.0000 " "  0  :  1 1.010673  1.010673  37.679690    1    9 1.1000 0.9000 19400101 21991231   0 0   1 0   0.000000   0.000000     0 0    1.10000    0.90000    0.00000 24 "FORT DAVIS"     1 -1 " "  0  " " 
   1032 "MCCAMEY 1 0 " 115.0000 " "  0  :  2 1.000000 0.992743  28.235865    1    9 1.1000 0.9000 19400101 21991231   0 0   1 0   0.000000   0.000000     0 0    1.10000    0.90000    0.00000 25 "MCCAMEY 1"     1 -1 " "  0  " " 
   1033 "MCCAMEY 1 1 " 230.0000 " "  0  :  2 1.000000 1.000000  24.759443    1    9 1.1000 0.9000 19400101 21991231   0 0   1 0   0.000000   0.000000     0 0    1.10000    0.90000    0.00000 25 "MCCAMEY 1"     1 -1 " "  0  " " 
   1034 "BIG SPRING~6" 115.0000 " "  0  :  1 1.000978  1.000978  33.102638    1    9 1.1000 0.9000 19400101 21991231   0 0   1 0   0.000000   0.000000     0 0    1.10000    0.90000    0.00000 26 "BIG SPRING 4"     1 -1 " "  0  " " 
   1035 "BIG SPRING~7"  13.8000 " "  0  :  2 1.000000 1.000000  34.750186    1    9 1.1000 0.9000 19400101 21991231   0 0   1 0   0.000000   0.000000     0 0    1.10000    0.90000    0.00000 26 "BIG SPRING 4"     1 -1 " "  0  " " 
   1036 "CRANE 0     " 115.0000 " "  0  :  2 1.000000 0.997147  32.194544    1    9 1.1000 0.9000 19400101 21991231   0 0   1 0   0.000000   0.000000     0 0    1.10000    0.90000    0.00000 27 "CRANE"     1 -1 " "  0  " " 
   1037 "ODESSA 5 0  " 115.0000 " "  0  :  2 1.000000 0.971933  18.703512    1    9 1.1000 0.9000 19400101 21991231   0 0   1 0   0.000000   0.000000     0 0    1.10000    0.90000    0.00000 28 "ODESSA 5"     1 -1 " "  0  " " 
   1038 "FORT STOCK~1" 115.0000 " "  0  :  1 1.010945  1.010945  33.332277    1    9 1.1000 0.9000 19400101 21991231   0 0   1 0   0.000000   0.000000     0 0    1.10000    0.90000    0.00000 29 "FORT STOCKTON 1"     1 -1 " "  0  " " 
   1039 "FORT STOCK~2"  22.0000 " "  0  :  2 1.000000 1.001824  36.033731    1    9 1.1000 0.9000 19400101 21991231   0 0   1 0   0.000000   0.000000     0 0    1.10000    0.90000    0.00000 29 "FORT STOCKTON 1"     1 -1 " "  0  " " 
   1040 "ANDREWS 0   " 115.0000 " "  0  :  2 1.000000 1.000000  25.312854    1    9 1.1000 0.9000 19400101 21991231   0 0   1 0   0.000000   0.000000     0 0    1.10000    0.90000    0.00000 30 "ANDREWS"     1 -1 " "  0  " " 
   1041 "FORSAN 0    " 115.0000 " "  0  :  1 1.003649  1.003649  32.361878    1    9 1.1000 0.9000 19400101 21991231   0 0   1 0   0.000000   0.000000     0 0    1.10000    0.90000    0.00000 31 "FORSAN"     1 -1 " "  0  " " 
   1042 "FORSAN 1    "  13.8000 " "  0  :  2 1.000000 1.003649  32.361878    1    9 1.1000 0.9000 19400101 21991231   0 0   1 0   0.000000   0.000000     0 0    1.10000    0.90000    0.00000 31 "FORSAN"     1 -1 " "  0  " " 
   1043 "FORSAN 2    "  13.8000 " "  0  :  2 1.000000 1.000000  33.984081    1    9 1.1000 0.9000 19400101 21991231   0 0   1 0   0.000000   0.000000     0 0    1.10000    0.90000    0.00000 31 "FORSAN"     1 -1 " "  0  " " 
   1044 "BIG LAKE 0  " 115.0000 " "  0  :  2 1.000000 1.000000  13.889008    1    9 1.1000 0.9000 19400101 21991231   0 0   1 0   0.000000   0.000000     0 0    1.10000    0.90000    0.00000 32 "BIG LAKE"     1 -1 " "  0  " " 
   1045 "MIDLAND 5 0 " 115.0000 " "  0  :  1 0.974747  0.974747  16.860105    1    9 1.1000 0.9000 19400101 21991231   0 0   1 0   0.000000   0.000000     0 0    1.10000    0.90000    0.00000 33 "MIDLAND 5"     1 -1 " "  0  " " 
   1046 "OZONA 0     " 115.0000 " "  0  :  2 1.000000 1.000000  23.664508    1    9 1.1000 0.9000 19400101 21991231   0 0   1 0   0.000000   0.000000     0 0    1.10000    0.90000    0.00000 34 "OZONA"     1 -1 " "  0  " " 
   1047 "MONAHANS 1 0" 115.0000 " "  0  :  1 0.991875  0.991875  25.239398    1    9 1.1000 0.9000 19400101 21991231   0 0   1 0   0.000000   0.000000     0 0    1.10000    0.90000    0.00000 35 "MONAHANS 1"     1 -1 " "  0  " " 
   1048 "MONAHANS 1 1"  18.0000 " "  0  :  2 1.000000 0.991875  25.239398    1    9 1.1000 0.9000 19400101 21991231   0 0   1 0   0.000000   0.000000     0 0    1.10000    0.90000    0.00000 35 "MONAHANS 1"     1 -1 " "  0  " " 
   1049 "MONAHANS 1 2"  18.0000 " "  0  :  2 1.000000 0.991875  25.239398    1    9 1.1000 0.9000 19400101 21991231   0 0   1 0   0.000000   0.000000     0 0    1.10000    0.90000    0.00000 35 "MONAHANS 1"     1 -1 " "  0  " " 
   1050 "MONAHANS 1 3"  18.0000 " "  0  :  2 1.000000 1.000000  26.420943    1    9 1.1000 0.9000 19400101 21991231   0 0   1 0   0.000000   0.000000     0 0    1.10000    0.90000    0.00000 35 "MONAHANS 1"     1 -1 " "  0  " " 
   1051 "MONAHANS 1 4"  18.0000 " "  0  :  2 1.000000 0.991875  25.239398    1    9 1.1000 0.9000 19400101 21991231   0 0   1 0   0.000000   0.000000     0 0    1.10000    0.90000    0.00000 35 "MONAHANS 1"     1 -1 " "  0  " " 
   1052 "MONAHANS 1 5"  18.0000 " "  0  :  2 1.000000 0.991875  25.239398    1    9 1.1000 0.9000 19400101 21991231   0 0   1 0   0.000000   0.000000     0 0    1.10000    0.90000    0.00000 35 "MONAHANS 1"     1 -1 " "  0  " " 
   1053 "MONAHANS 1 6" 230.0000 " "  0  :  2 1.000000 0.996220  22.268664    1    9 1.1000 0.9000 19400101 21991231   0 0   1 0   0.000000   0.000000     0 0    1.10000    0.90000    0.00000 35 "MONAHANS 1"     1 -1 " "  0  " " 
   1054 "STANTON 0   " 115.0000 " "  0  :  1 1.009223  1.009223  26.768359    1    9 1.1000 0.9000 19400101 21991231   0 0   1 0   0.000000   0.000000     0 0    1.10000    0.90000    0.00000 36 "STANTON"     1 -1 " "  0  " " 
   1055 "ODONNELL 0  " 115.0000 " "  0  :  2 1.000000 1.000000  24.828106    1    9 1.1000 0.9000 19400101 21991231   0 0   1 0   0.000000   0.000000     0 0    1.10000    0.90000    0.00000 37 "ODONNELL"     1 -1 " "  0  " " 
   1056 "LENORAH 0   " 115.0000 " "  0  :  1 1.021693  1.021693  25.773697    1    9 1.1000 0.9000 19400101 21991231   0 0   1 0   0.000000   0.000000     0 0    1.10000    0.90000    0.00000 38 "LENORAH"     1 -1 " "  0  " " 
   1057 "LENORAH 1   "  18.0000 " "  0  :  2 1.000000 1.021693  25.773697    1    9 1.1000 0.9000 19400101 21991231   0 0   1 0   0.000000   0.000000     0 0    1.10000    0.90000    0.00000 38 "LENORAH"     1 -1 " "  0  " " 
   1058 "IRAAN 3 0   " 115.0000 " "  0  :  1 1.017705  1.017705  28.011034    1    9 1.1000 0.9000 19400101 21991231   0 0   1 0   0.000000   0.000000     0 0    1.10000    0.90000    0.00000 39 "IRAAN 3"     1 -1 " "  0  " " 
   1059 "IRAAN 3 1   "  22.0000 " "  0  :  2 1.040000 1.017705  28.011034    1    9 1.1000 0.9000 19400101 21991231   0 0   1 0   0.000000   0.000000     0 0    1.10000    0.90000    0.00000 39 "IRAAN 3"     1 -1 " "  0  " " 
   1060 "IRAAN 3 2   "  22.0000 " "  0  :  2 1.040000 1.017705  28.011034    1    9 1.1000 0.9000 19400101 21991231   0 0   1 0   0.000000   0.000000     0 0    1.10000    0.90000    0.00000 39 "IRAAN 3"     1 -1 " "  0  " " 
   1061 "BIG SPRIN~10" 115.0000 " "  0  :  2 1.000000 1.000000  28.936633    1    9 1.1000 0.9000 19400101 21991231   0 0   1 0   0.000000   0.000000     0 0    1.10000    0.90000    0.00000 40 "BIG SPRING 6"     1 -1 " "  0  " " 
   1062 "BIG SPRIN~11"  13.8000 " "  0  :  2 1.010000 1.010000  31.015134    1    9 1.1000 0.9000 19400101 21991231   0 0   1 0   0.000000   0.000000     0 0    1.10000    0.90000    0.00000 40 "BIG SPRING 6"     1 -1 " "  0  " " 
   1063 "BIG SPRIN~12"  13.8000 " "  0  :  2 1.010000 1.010000  30.976771    1    9 1.1000 0.9000 19400101 21991231   0 0   1 0   0.000000   0.000000     0 0    1.10000    0.90000    0.00000 40 "BIG SPRING 6"     1 -1 " "  0  " " 
   1064 "ODESSA 3 0  " 115.0000 " "  0  :  1 0.965458  0.965458  14.840959    1    9 1.1000 0.9000 19400101 21991231   0 0   1 0   0.000000   0.000000     0 0    1.10000    0.90000    0.00000 41 "ODESSA 3"     1 -1 " "  0  " " 
   1065 "BIG SPRING~4" 115.0000 " "  0  :  1 1.005706  1.005706  32.558793    1    9 1.1000 0.9000 19400101 21991231   0 0   1 0   0.000000   0.000000     0 0    1.10000    0.90000    0.00000 42 "BIG SPRING 3"     1 -1 " "  0  " " 
   1066 "BIG SPRING~5"  13.8000 " "  0  :  2 1.000000 1.000000  36.325508    1    9 1.1000 0.9000 19400101 21991231   0 0   1 0   0.000000   0.000000     0 0    1.10000    0.90000    0.00000 42 "BIG SPRING 3"     1 -1 " "  0  " " 
   1067 "BIG SPRIN~13" 115.0000 " "  0  :  1 1.001432  1.001432  31.762188    1    9 1.1000 0.9000 19400101 21991231   0 0   1 0   0.000000   0.000000     0 0    1.10000    0.90000    0.00000 43 "BIG SPRING 7"     1 -1 " "  0  " " 
   1068 "MIDLAND 1 0 " 115.0000 " "  0  :  1 0.989727  0.989727  34.646136    1    9 1.1000 0.9000 19400101 21991231   0 0   1 0   0.000000   0.000000     0 0    1.10000    0.90000    0.00000 44 "MIDLAND 1"     1 -1 " "  0  " " 
   1069 "IRAAN 1 0   " 115.0000 " "  0  :  1 1.016204  1.016204  30.474757    1    9 1.1000 0.9000 19400101 21991231   0 0   1 0   0.000000   0.000000     0 0    1.10000    0.90000    0.00000 45 "IRAAN 1"     1 -1 " "  0  " " 
   1070 "IRAAN 1 1   "  13.8000 " "  0  :  2 1.040000 1.028768  32.756654    1    9 1.1000 0.9000 19400101 21991231   0 0   1 0   0.000000   0.000000     0 0    1.10000    0.90000    0.00000 45 "IRAAN 1"     1 -1 " "  0  " " 
   1071 "ODESSA 1 0  " 115.0000 " "  0  :  1 0.973221  0.973221  14.283084    1    9 1.1000 0.9000 19400101 21991231   0 0   1 0   0.000000   0.000000     0 0    1.10000    0.90000    0.00000 46 "ODESSA 1"     1 -1 " "  0  " " 
   1072 "ODESSA 1 1  "  18.0000 " "  0  :  2 1.010000 1.010000  16.012688    1    9 1.1000 0.9000 19400101 21991231   0 0   1 0   0.000000   0.000000     0 0    1.10000    0.90000    0.00000 46 "ODESSA 1"     1 -1 " "  0  " " 
   1073 "ODESSA 1 2  "  18.0000 " "  0  :  2 1.010000 1.010000  17.306529    1    9 1.1000 0.9000 19400101 21991231   0 0   1 0   0.000000   0.000000     0 0    1.10000    0.90000    0.00000 46 "ODESSA 1"     1 -1 " "  0  " " 
   1074 "ODESSA 1 3  "  18.0000 " "  0  :  2 1.010000 0.973221  14.283084    1    9 1.1000 0.9000 19400101 21991231   0 0   1 0   0.000000   0.000000     0 0    1.10000    0.90000    0.00000 46 "ODESSA 1"     1 -1 " "  0  " " 
   1075 "ODESSA 1 4  "  18.0000 " "  0  :  2 1.010000 0.973221  14.283084    1    9 1.1000 0.9000 19400101 21991231   0 0   1 0   0.000000   0.000000     0 0    1.10000    0.90000    0.00000 46 "ODESSA 1"     1 -1 " "  0  " " 
   1076 "ODESSA 1 5  "  18.0000 " "  0  :  2 1.010000 0.973221  14.283084    1    9 1.1000 0.9000 19400101 21991231   0 0   1 0   0.000000   0.000000     0 0    1.10000    0.90000    0.00000 46 "ODESSA 1"     1 -1 " "  0  " " 
   1077 "ODESSA 1 6  "  18.0000 " "  0  :  2 1.010000 0.973221  14.283084    1    9 1.1000 0.9000 19400101 21991231   0 0   1 0   0.000000   0.000000     0 0    1.10000    0.90000    0.00000 46 "ODESSA 1"     1 -1 " "  0  " " 
   1078 "ODESSA 1 7  "  18.0000 " "  0  :  2 1.010000 0.973221  14.283084    1    9 1.1000 0.9000 19400101 21991231   0 0   1 0   0.000000   0.000000     0 0    1.10000    0.90000    0.00000 46 "ODESSA 1"     1 -1 " "  0  " " 
   1079 "ODESSA 1 8  " 500.0000 " "  0  :  2 1.010000 0.997917  -3.081369    1    9 1.1000 0.9000 19400101 21991231   0 0   1 0   0.000000   0.000000     0 0    1.10000    0.90000    0.00000 46 "ODESSA 1"     1 -1 " "  0  " " 
   1080 "ODESSA 1 9  "  18.0000 " "  0  :  2 1.010000 0.973221  14.283084    1    9 1.1000 0.9000 19400101 21991231   0 0   1 0   0.000000   0.000000     0 0    1.10000    0.90000    0.00000 46 "ODESSA 1"     1 -1 " "  0  " " 
   1081 "ODESSA 1 10 " 230.0000 " "  0  :  2 1.030000 0.997238  20.241228    1    9 1.1000 0.9000 19400101 21991231   0 0   1 0   0.000000   0.000000     0 0    1.10000    0.90000    0.00000 46 "ODESSA 1"     1 -1 " "  0  " " 
   1082 "FORT STOCK~3" 115.0000 " "  0  :  2 1.000000 1.013229  33.414551    1    9 1.1000 0.9000 19400101 21991231   0 0   1 0   0.000000   0.000000     0 0    1.10000    0.90000    0.00000 47 "FORT STOCKTON 2"     1 -1 " "  0  " " 
   1083 "FORT STOCK~4" 115.0000 " "  0  :  2 1.030000 1.013837  36.233481    1    9 1.1000 0.9000 19400101 21991231   0 0   1 0   0.000000   0.000000     0 0    1.10000    0.90000    0.00000 48 "FORT STOCKTON 3"     1 -1 " "  0  " " 
   1084 "BIG SPRING~3" 115.0000 " "  0  :  2 1.040000 1.003168  22.558242    1    9 1.1000 0.9000 19400101 21991231   0 0   1 0   0.000000   0.000000     0 0    1.10000    0.90000    0.00000 49 "BIG SPRING 2"     1 -1 " "  0  " " 
   1085 "KERMIT 0    " 115.0000 " "  0  :  2 1.000000 1.000000  27.936206    1    9 1.1000 0.9000 19400101 21991231   0 0   1 0   0.000000   0.000000     0 0    1.10000    0.90000    0.00000 50 "KERMIT"     1 -1 " "  0  " " 
   1086 "PECOS 0     " 115.0000 " "  0  :  2 1.030000 1.018494  28.486842    1    9 1.1000 0.9000 19400101 21991231   0 0   1 0   0.000000   0.000000     0 0    1.10000    0.90000    0.00000 51 "PECOS"     1 -1 " "  0  " " 
   1087 "SHEFFIELD 0 " 115.0000 " "  0  :  1 1.027871  1.027871  23.019859    1    9 1.1000 0.9000 19400101 21991231   0 0   1 0   0.000000   0.000000     0 0    1.10000    0.90000    0.00000 52 "SHEFFIELD"     1 -1 " "  0  " " 
   1088 "MCCAMEY 2 0 " 115.0000 " "  0  :  2 1.000000 1.000000  35.187864    1    9 1.1000 0.9000 19400101 21991231   0 0   1 0   0.000000   0.000000     0 0    1.10000    0.90000    0.00000 53 "MCCAMEY 2"     1 -1 " "  0  " " 
   1089 "LAMESA 0    " 115.0000 " "  0  :  2 1.000000 1.000000  30.154768    1    9 1.1000 0.9000 19400101 21991231   0 0   1 0   0.000000   0.000000     0 0    1.10000    0.90000    0.00000 54 "LAMESA"     1 -1 " "  0  " " 
   1090 "GOLDSMITH 0 " 115.0000 " "  0  :  2 1.020000 1.003662  24.416531    1    9 1.1000 0.9000 19400101 21991231   0 0   1 0   0.000000   0.000000     0 0    1.10000    0.90000    0.00000 55 "GOLDSMITH"     1 -1 " "  0  " " 
   1091 "RALLS 2 0   " 161.0000 " "  0  :  1 0.981816  0.981816  23.942045    1    9 1.1000 0.9000 19400101 21991231   0 0   1 0   0.000000   0.000000     0 0    1.10000    0.90000    0.00000 56 "RALLS 2"     1 -1 " "  0  " " 
   2001 "PARIS 3 0   " 161.0000 " "  0  :  1 1.027371  1.027371  -29.043945    2   11 1.1000 0.9000 19400101 21991231   0 0   1 0   0.000000   0.000000     0 0    1.10000    0.90000    0.00000 57 "PARIS 3"     1 -1 " "  0  " " 
   2002 "SAVOY 0     " 500.0000 " "  0  :  1 1.029905  1.029905  -28.374696    2   11 1.1000 0.9000 19400101 21991231   0 0   1 0   0.000000   0.000000     0 0    1.10000    0.90000    0.00000 58 "SAVOY"     1 -1 " "  0  " " 
   2003 "SAVOY 1     " 161.0000 " "  0  :  1 1.029618  1.029618  -29.015652    2   11 1.1000 0.9000 19400101 21991231   0 0   1 0   0.000000   0.000000     0 0    1.10000    0.90000    0.00000 58 "SAVOY"     1 -1 " "  0  " " 
   2004 "SAVOY 2     "  13.8000 " "  0  :  2 1.020000 1.029905  -28.374696    2   11 1.1000 0.9000 19400101 21991231   0 0   1 0   0.000000   0.000000     0 0    1.10000    0.90000    0.00000 58 "SAVOY"     1 -1 " "  0  " " 
   2005 "SAVOY 3     "  13.8000 " "  0  :  2 1.020000 1.029905  -28.374696    2   11 1.1000 0.9000 19400101 21991231   0 0   1 0   0.000000   0.000000     0 0    1.10000    0.90000    0.00000 58 "SAVOY"     1 -1 " "  0  " " 
   2006 "SAVOY 4     "  13.8000 " "  0  :  2 1.020000 1.029905  -28.374696    2   11 1.1000 0.9000 19400101 21991231   0 0   1 0   0.000000   0.000000     0 0    1.10000    0.90000    0.00000 58 "SAVOY"     1 -1 " "  0  " " 
   2007 "HONEY GROV~1" 161.0000 " "  0  :  1 1.028073  1.028073  -28.650768    2   11 1.1000 0.9000 19400101 21991231   0 0   1 0   0.000000   0.000000     0 0    1.10000    0.90000    0.00000 59 "HONEY GROVE"     1 -1 " "  0  " " 
   2008 "MEMPHIS 0   " 161.0000 " "  0  :  2 1.000000 1.002318  30.351122    2   10 1.1000 0.9000 19400101 21991231   0 0   1 0   0.000000   0.000000     0 0    1.10000    0.90000    0.00000 60 "MEMPHIS"     1 -1 " "  0  " " 
   2009 "IOWA PARK 0 " 161.0000 " "  0  :  1 1.030000 0.996355  1.010142    2   11 1.1000 0.9000 19400101 21991231   0 0   1 0   0.000000   0.000000     0 0    1.10000    0.90000    0.00000 61 "IOWA PARK"     1 -1 " "  0  " " 
   2010 "VERNON 2 0  " 161.0000 " "  0  :  2 1.000000 1.000000  22.381655    2   10 1.1000 0.9000 19400101 21991231   0 0   1 0   0.000000   0.000000     0 0    1.10000    0.90000    0.00000 62 "VERNON 2"     1 -1 " "  0  " " 
   2011 "PANHANDLE ~2" 500.0000 " "  0  :  2 1.000000 1.019997  16.076489    2   10 1.1000 0.9000 19400101 21991231   0 0   1 0   0.000000   0.000000     0 0    1.10000    0.90000    0.00000 63 "PANHANDLE 2"     1 -1 " "  0  " " 
   2012 "PANHANDLE ~3" 161.0000 " "  0  :  2 1.000000 0.996324  22.140028    2   10 1.1000 0.9000 19400101 21991231   0 0   1 0   0.000000   0.000000     0 0    1.10000    0.90000    0.00000 63 "PANHANDLE 2"     1 -1 " "  0  " " 
   2013 "PANHANDLE ~4"  18.0000 " "  0  :  2 1.000000 1.009230  18.604654    2   10 1.1000 0.9000 19400101 21991231   0 0   1 0   0.000000   0.000000     0 0    1.10000    0.90000    0.00000 63 "PANHANDLE 2"     1 -1 " "  0  " " 
   2014 "CHILDRESS 0 " 161.0000 " "  0  :  1 0.998102  0.998102  31.561844    2   10 1.1000 0.9000 19400101 21991231   0 0   1 0   0.000000   0.000000     0 0    1.10000    0.90000    0.00000 64 "CHILDRESS"     1 -1 " "  0  " " 
   2015 "FORESTBURG 0" 161.0000 " "  0  :  1 1.002404  1.002404  -18.961923    2   11 1.1000 0.9000 19400101 21991231   0 0   1 0   0.000000   0.000000     0 0    1.10000    0.90000    0.00000 65 "FORESTBURG"     1 -1 " "  0  " " 
   2016 "SHERMAN 3 0 " 161.0000 " "  0  :  2 1.000000 1.023163  -31.278716    2   11 1.1000 0.9000 19400101 21991231   0 0   1 0   0.000000   0.000000     0 0    1.10000    0.90000    0.00000 66 "SHERMAN 3"     1 -1 " "  0  " " 
   2017 "PANHANDLE ~7" 500.0000 " "  0  :  1 1.030000 1.030031  11.169866    2   10 1.1000 0.9000 19400101 21991231   0 0   1 0   0.000000   0.000000     0 0    1.10000    0.90000    0.00000 67 "PANHANDLE 4"     1 -1 " "  0  " " 
   2018 "PANHANDLE ~8" 161.0000 " "  0  :  1 1.005833  1.005833  14.855195    2   10 1.1000 0.9000 19400101 21991231   0 0   1 0   0.000000   0.000000     0 0    1.10000    0.90000    0.00000 67 "PANHANDLE 4"     1 -1 " "  0  " " 
   2019 "PANHANDLE ~9"  20.0000 " "  0  :  2 1.040000 1.030031  11.169866    2   10 1.1000 0.9000 19400101 21991231   0 0   1 0   0.000000   0.000000     0 0    1.10000    0.90000    0.00000 67 "PANHANDLE 4"     1 -1 " "  0  " " 
   2020 "WICHITA F~12" 161.0000 " "  0  :  1 0.979081  0.979081  -4.836575    2   11 1.1000 0.9000 19400101 21991231   0 0   1 0   0.000000   0.000000     0 0    1.10000    0.90000    0.00000 68 "WICHITA FALLS 6"     1 -1 " "  0  " " 
   2021 "PARIS 2 0   " 500.0000 " "  0  :  1 1.035044  1.035044  -27.832320    2   11 1.1000 0.9000 19400101 21991231   0 0   1 0   0.000000   0.000000     0 0    1.10000    0.90000    0.00000 69 "PARIS 2"     1 -1 " "  0  " " 
   2022 "PARIS 2 1   " 161.0000 " "  0  :  1 1.032325  1.032325  -28.513629    2   11 1.1000 0.9000 19400101 21991231   0 0   1 0   0.000000   0.000000     0 0    1.10000    0.90000    0.00000 69 "PARIS 2"     1 -1 " "  0  " " 
   2023 "PARIS 2 2   "  13.8000 " "  0  :  2 1.020000 1.035044  -27.832320    2   11 1.1000 0.9000 19400101 21991231   0 0   1 0   0.000000   0.000000     0 0    1.10000    0.90000    0.00000 69 "PARIS 2"     1 -1 " "  0  " " 
   2024 "PARIS 2 3   "  13.8000 " "  0  :  2 1.020000 1.035044  -27.832320    2   11 1.1000 0.9000 19400101 21991231   0 0   1 0   0.000000   0.000000     0 0    1.10000    0.90000    0.00000 69 "PARIS 2"     1 -1 " "  0  " " 
   2025 "WICHITA F~10" 161.0000 " "  0  :  1 0.977559  0.977559  -4.920646    2   11 1.1000 0.9000 19400101 21991231   0 0   1 0   0.000000   0.000000     0 0    1.10000    0.90000    0.00000 70 "WICHITA FALLS 4"     1 -1 " "  0  " " 
   2026 "WHEELER 0   " 161.0000 " "  0  :  1 1.002608  1.002608  17.579645    2   10 1.1000 0.9000 19400101 21991231   0 0   1 0   0.000000   0.000000     0 0    1.10000    0.90000    0.00000 71 "WHEELER"     1 -1 " "  0  " " 
   2027 "DEPORT 0    " 161.0000 " "  0  :  1 1.028693  1.028693  -29.173700    2   11 1.1000 0.9000 19400101 21991231   0 0   1 0   0.000000   0.000000     0 0    1.10000    0.90000    0.00000 72 "DEPORT"     1 -1 " "  0  " " 
   2028 "WICHITA FA~9" 161.0000 " "  0  :  1 0.986386  0.986386  -4.596851    2   11 1.1000 0.9000 19400101 21991231   0 0   1 0   0.000000   0.000000     0 0    1.10000    0.90000    0.00000 73 "WICHITA FALLS 3"     1 -1 " "  0  " " 
   2029 "SILVERTON 0 " 161.0000 " "  0  :  2 1.000000 1.000000  33.057652    2   10 1.1000 0.9000 19400101 21991231   0 0   1 0   0.000000   0.000000     0 0    1.10000    0.90000    0.00000 74 "SILVERTON"     1 -1 " "  0  " " 
   2030 "BONHAM 0    " 161.0000 " "  0  :  1 1.017287  1.017287  -29.841421    2   11 1.1000 0.9000 19400101 21991231   0 0   1 0   0.000000   0.000000     0 0    1.10000    0.90000    0.00000 75 "BONHAM"     1 -1 " "  0  " " 
   2031 "MATADOR 0   " 161.0000 " "  0  :  1 1.001957  1.001957  24.777523    2   10 1.1000 0.9000 19400101 21991231   0 0   1 0   0.000000   0.000000     0 0    1.10000    0.90000    0.00000 76 "MATADOR"     1 -1 " "  0  " " 
   2032 "ARTHUR CIT~1" 161.0000 " "  0  :  1 1.029714  1.029714  -28.461681    2   11 1.1000 0.9000 19400101 21991231   0 0   1 0   0.000000   0.000000     0 0    1.10000    0.90000    0.00000 77 "ARTHUR CITY"     1 -1 " "  0  " " 
   2033 "LEONARD 0   " 161.0000 " "  0  :  1 1.018375  1.018375  -30.096467    2   11 1.1000 0.9000 19400101 21991231   0 0   1 0   0.000000   0.000000     0 0    1.10000    0.90000    0.00000 78 "LEONARD"     1 -1 " "  0  " " 
   2034 "GORDONVILL~1" 161.0000 " "  0  :  1 1.025671  1.025671  -31.167575    2   11 1.1000 0.9000 19400101 21991231   0 0   1 0   0.000000   0.000000     0 0    1.10000    0.90000    0.00000 79 "GORDONVILLE"     1 -1 " "  0  " " 
   2035 "KNOX CITY 0 " 161.0000 " "  0  :  2 1.000000 1.000000  33.369137    2   10 1.1000 0.9000 19400101 21991231   0 0   1 0   0.000000   0.000000     0 0    1.10000    0.90000    0.00000 80 "KNOX CITY"     1 -1 " "  0  " " 
   2036 "WICHITA F~13" 161.0000 " "  0  :  1 0.980870  0.980870  -3.504055    2   11 1.1000 0.9000 19400101 21991231   0 0   1 0   0.000000   0.000000     0 0    1.10000    0.90000    0.00000 81 "WICHITA FALLS 7"     1 -1 " "  0  " " 
   2037 "LINDSAY 0   " 161.0000 " "  0  :  1 1.009714  1.009714  -18.977608    2   11 1.1000 0.9000 19400101 21991231   0 0   1 0   0.000000   0.000000     0 0    1.10000    0.90000    0.00000 82 "LINDSAY"     1 -1 " "  0  " " 
   2038 "ECTOR 0     " 161.0000 " "  0  :  1 1.029028  1.029028  -28.881140    2   11 1.1000 0.9000 19400101 21991231   0 0   1 0   0.000000   0.000000     0 0    1.10000    0.90000    0.00000 83 "ECTOR"     1 -1 " "  0  " " 
   2039 "SUNSET 0    " 161.0000 " "  0  :  1 0.992726  0.992726  -18.115928    2   11 1.1000 0.9000 19400101 21991231   0 0   1 0   0.000000   0.000000     0 0    1.10000    0.90000    0.00000 84 "SUNSET"     1 -1 " "  0  " " 
   2040 "CLARKSVILL~1" 161.0000 " "  0  :  1 1.032267  1.032267  -28.732634    2   11 1.1000 0.9000 19400101 21991231   0 0   1 0   0.000000   0.000000     0 0    1.10000    0.90000    0.00000 85 "CLARKSVILLE"     1 -1 " "  0  " " 
   2041 "PANHANDLE ~5" 161.0000 " "  0  :  2 1.000000 1.000000  26.236152    2   10 1.1000 0.9000 19400101 21991231   0 0   1 0   0.000000   0.000000     0 0    1.10000    0.90000    0.00000 86 "PANHANDLE 3"     1 -1 " "  0  " " 
   2042 "PANHANDLE ~6"  18.0000 " "  0  :  2 1.010000 1.010000  29.813351    2   10 1.1000 0.9000 19400101 21991231   0 0   1 0   0.000000   0.000000     0 0    1.10000    0.90000    0.00000 86 "PANHANDLE 3"     1 -1 " "  0  " " 
   2043 "SADLER 0    " 161.0000 " "  0  :  1 1.024563  1.024563  -31.225660    2   11 1.1000 0.9000 19400101 21991231   0 0   1 0   0.000000   0.000000     0 0    1.10000    0.90000    0.00000 87 "SADLER"     1 -1 " "  0  " " 
   2044 "WHITESBORO 0" 161.0000 " "  0  :  1 1.007518  1.007518  -24.129498    2   11 1.1000 0.9000 19400101 21991231   0 0   1 0   0.000000   0.000000     0 0    1.10000    0.90000    0.00000 88 "WHITESBORO"     1 -1 " "  0  " " 
   2045 "SHEPPARD A~1" 161.0000 " "  0  :  1 0.980239  0.980239  -4.813346    2   11 1.1000 0.9000 19400101 21991231   0 0   1 0   0.000000   0.000000     0 0    1.10000    0.90000    0.00000 89 "SHEPPARD AFB"     1 -1 " "  0  " " 
   2046 "POTTSBORO 0 " 161.0000 " "  0  :  1 1.027070  1.027070  -31.079013    2   11 1.1000 0.9000 19400101 21991231   0 0   1 0   0.000000   0.000000     0 0    1.10000    0.90000    0.00000 90 "POTTSBORO"     1 -1 " "  0  " " 
   2047 "BELLS 0     " 161.0000 " "  0  :  1 1.029110  1.029110  -29.398063    2   11 1.1000 0.9000 19400101 21991231   0 0   1 0   0.000000   0.000000     0 0    1.10000    0.90000    0.00000 91 "BELLS"     1 -1 " "  0  " " 
   2048 "CROSBYTON 0 " 161.0000 " "  0  :  2 1.000000 1.000000  25.627784    2   10 1.1000 0.9000 19400101 21991231   0 0   1 0   0.000000   0.000000     0 0    1.10000    0.90000    0.00000 92 "CROSBYTON"     1 -1 " "  0  " " 
   2049 "ELECTRA 0   " 161.0000 " "  0  :  2 1.000000 1.000000  9.963677    2   10 1.1000 0.9000 19400101 21991231   0 0   1 0   0.000000   0.000000     0 0    1.10000    0.90000    0.00000 93 "ELECTRA"     1 -1 " "  0  " " 
   2050 "PATTONVILL~1" 161.0000 " "  0  :  1 1.023835  1.023835  -29.906717    2   11 1.1000 0.9000 19400101 21991231   0 0   1 0   0.000000   0.000000     0 0    1.10000    0.90000    0.00000 94 "PATTONVILLE"     1 -1 " "  0  " " 
   2051 "HENRIETTA 0 " 161.0000 " "  0  :  2 1.000000 1.000000  -9.427014    2   11 1.1000 0.9000 19400101 21991231   0 0   1 0   0.000000   0.000000     0 0    1.10000    0.90000    0.00000 95 "HENRIETTA"     1 -1 " "  0  " " 
   2052 "PANHANDLE~13" 161.0000 " "  0  :  1 0.994345  0.994345  26.118068    2   10 1.1000 0.9000 19400101 21991231   0 0   1 0   0.000000   0.000000     0 0    1.10000    0.90000    0.00000 96 "PANHANDLE 6"     1 -1 " "  0  " " 
   2053 "BOWIE 0     " 161.0000 " "  0  :  1 0.993139  0.993139  -20.573759    2   11 1.1000 0.9000 19400101 21991231   0 0   1 0   0.000000   0.000000     0 0    1.10000    0.90000    0.00000 97 "BOWIE"     1 -1 " "  0  " " 
   2054 "WICHITA FA~1" 500.0000 " "  0  :  1 0.981610  0.981610  -5.634742    2   11 1.1000 0.9000 19400101 21991231   0 0   1 0   0.000000   0.000000     0 0    1.10000    0.90000    0.00000 98 "WICHITA FALLS 1"     1 -1 " "  0  " " 
   2055 "WICHITA FA~2" 161.0000 " "  0  :  1 0.978789  0.978789  -4.776514    2   11 1.1000 0.9000 19400101 21991231   0 0   1 0   0.000000   0.000000     0 0    1.10000    0.90000    0.00000 98 "WICHITA FALLS 1"     1 -1 " "  0  " " 
   2056 "WICHITA FA~3"  18.0000 " "  0  :  2 0.990000 0.981610  -5.634742    2   11 1.1000 0.9000 19400101 21991231   0 0   1 0   0.000000   0.000000     0 0    1.10000    0.90000    0.00000 98 "WICHITA FALLS 1"     1 -1 " "  0  " " 
   2057 "WICHITA FA~4"  18.0000 " "  0  :  2 0.990000 0.990000  -5.384850    2   11 1.1000 0.9000 19400101 21991231   0 0   1 0   0.000000   0.000000     0 0    1.10000    0.90000    0.00000 98 "WICHITA FALLS 1"     1 -1 " "  0  " " 
   2058 "WHITE DEER 0" 161.0000 " "  0  :  1 1.000980  1.000980  25.032501    2   10 1.1000 0.9000 19400101 21991231   0 0   1 0   0.000000   0.000000     0 0    1.10000    0.90000    0.00000 99 "WHITE DEER"     1 -1 " "  0  " " 
   2059 "WHITE DEER 1"  13.8000 " "  0  :  2 1.000000 1.000000  28.505406    2   10 1.1000 0.9000 19400101 21991231   0 0   1 0   0.000000   0.000000     0 0    1.10000    0.90000    0.00000 99 "WHITE DEER"     1 -1 " "  0  " " 
   2060 "ROXTON 0    " 161.0000 " "  0  :  1 1.024795  1.024795  -29.450444    2   11 1.1000 0.9000 19400101 21991231   0 0   1 0   0.000000   0.000000     0 0    1.10000    0.90000    0.00000 100 "ROXTON"     1 -1 " "  0  " " 
   2061 "VERNON 1 0  " 161.0000 " "  0  :  1 1.001221  1.001221  15.028613    2   10 1.1000 0.9000 19400101 21991231   0 0   1 0   0.000000   0.000000     0 0    1.10000    0.90000    0.00000 101 "VERNON 1"     1 -1 " "  0  " " 
   2062 "VERNON 1 1  "  18.0000 " "  0  :  2 1.020000 1.013672  17.355414    2   10 1.1000 0.9000 19400101 21991231   0 0   1 0   0.000000   0.000000     0 0    1.10000    0.90000    0.00000 101 "VERNON 1"     1 -1 " "  0  " " 
   2063 "DENISON 2 0 " 161.0000 " "  0  :  1 1.030000 1.029818  -30.876391    2   11 1.1000 0.9000 19400101 21991231   0 0   1 0   0.000000   0.000000     0 0    1.10000    0.90000    0.00000 102 "DENISON 2"     1 -1 " "  0  " " 
   2064 "SUMNER 0    " 161.0000 " "  0  :  1 1.028425  1.028425  -28.994027    2   11 1.1000 0.9000 19400101 21991231   0 0   1 0   0.000000   0.000000     0 0    1.10000    0.90000    0.00000 103 "SUMNER"     1 -1 " "  0  " " 
   2065 "GAINESVILL~1" 161.0000 " "  0  :  2 1.030000 1.005289  -20.818540    2   11 1.1000 0.9000 19400101 21991231   0 0   1 0   0.000000   0.000000     0 0    1.10000    0.90000    0.00000 104 "GAINESVILLE"     1 -1 " "  0  " " 
   2066 "ASPERMONT 0 " 161.0000 " "  0  :  1 0.984696  0.984696  23.895285    2   10 1.1000 0.9000 19400101 21991231   0 0   1 0   0.000000   0.000000     0 0    1.10000    0.90000    0.00000 105 "ASPERMONT"     1 -1 " "  0  " " 
   2067 "WICHITA F~11" 161.0000 " "  0  :  1 0.978021  0.978021  -4.979164    2   11 1.1000 0.9000 19400101 21991231   0 0   1 0   0.000000   0.000000     0 0    1.10000    0.90000    0.00000 106 "WICHITA FALLS 5"     1 -1 " "  0  " " 
   2068 "WINDTHORST 0" 161.0000 " "  0  :  1 0.990949  0.990949  -4.392048    2   11 1.1000 0.9000 19400101 21991231   0 0   1 0   0.000000   0.000000     0 0    1.10000    0.90000    0.00000 107 "WINDTHORST"     1 -1 " "  0  " " 
   2069 "HOWE 0      " 161.0000 " "  0  :  1 1.030000 1.030000  -30.884885    2   11 1.1000 0.9000 19400101 21991231   0 0   1 0   0.000000   0.000000     0 0    1.10000    0.90000    0.00000 108 "HOWE"     1 -1 " "  0  " " 
   2070 "ARCHER 2 0  " 161.0000 " "  0  :  1 0.994185  0.994185  -4.541877    2   11 1.1000 0.9000 19400101 21991231   0 0   1 0   0.000000   0.000000     0 0    1.10000    0.90000    0.00000 109 "ARCHER 2"     1 -1 " "  0  " " 
   2071 "ARCHER 2 1  "  18.0000 " "  0  :  2 1.000000 1.000000  -0.846924    2   11 1.1000 0.9000 19400101 21991231   0 0   1 0   0.000000   0.000000     0 0    1.10000    0.90000    0.00000 109 "ARCHER 2"     1 -1 " "  0  " " 
   2072 "COLLINSVIL~1" 161.0000 " "  0  :  1 1.025974  1.025974  -29.937991    2   11 1.1000 0.9000 19400101 21991231   0 0   1 0   0.000000   0.000000     0 0    1.10000    0.90000    0.00000 110 "COLLINSVILLE"     1 -1 " "  0  " " 
   2073 "JAYTON 0    " 161.0000 " "  0  :  1 0.990637  0.990637  16.682428    2   10 1.1000 0.9000 19400101 21991231   0 0   1 0   0.000000   0.000000     0 0    1.10000    0.90000    0.00000 111 "JAYTON"     1 -1 " "  0  " " 
   2074 "JAYTON 1    " 115.0000 " "  0  :  1 0.992976  0.992976  19.573051    2   10 1.1000 0.9000 19400101 21991231   0 0   1 0   0.000000   0.000000     0 0    1.10000    0.90000    0.00000 111 "JAYTON"     1 -1 " "  0  " " 
   2075 "JAYTON 2    " 115.0000 " "  0  :  1 0.992976  0.992976  19.573051    2   10 1.1000 0.9000 19400101 21991231   0 0   1 0   0.000000   0.000000     0 0    1.10000    0.90000    0.00000 111 "JAYTON"     1 -1 " "  0  " " 
   2076 "JAYTON 3    "  24.0000 " "  0  :  2 1.040000 0.996024  17.634995    2   10 1.1000 0.9000 19400101 21991231   0 0   1 0   0.000000   0.000000     0 0    1.10000    0.90000    0.00000 111 "JAYTON"     1 -1 " "  0  " " 
   2077 "MUENSTER 1 0" 161.0000 " "  0  :  1 1.016281  1.016281  -16.556994    2   11 1.1000 0.9000 19400101 21991231   0 0   1 0   0.000000   0.000000     0 0    1.10000    0.90000    0.00000 112 "MUENSTER 1"     1 -1 " "  0  " " 
   2078 "MUENSTER 1 1"  13.8000 " "  0  :  2 1.020000 1.020000  -13.231539    2   11 1.1000 0.9000 19400101 21991231   0 0   1 0   0.000000   0.000000     0 0    1.10000    0.90000    0.00000 112 "MUENSTER 1"     1 -1 " "  0  " " 
   2079 "PADUCAH 0   " 161.0000 " "  0  :  1 1.001417  1.001417  23.625313    2   10 1.1000 0.9000 19400101 21991231   0 0   1 0   0.000000   0.000000     0 0    1.10000    0.90000    0.00000 113 "PADUCAH"     1 -1 " "  0  " " 
   2080 "NOCONA 0    " 161.0000 " "  0  :  1 1.000359  1.000359  -13.134714    2   11 1.1000 0.9000 19400101 21991231   0 0   1 0   0.000000   0.000000     0 0    1.10000    0.90000    0.00000 114 "NOCONA"     1 -1 " "  0  " " 
   2081 "DODD CITY 0 " 161.0000 " "  0  :  2 1.000000 1.027761  -28.608518    2   11 1.1000 0.9000 19400101 21991231   0 0   1 0   0.000000   0.000000     0 0    1.10000    0.90000    0.00000 115 "DODD CITY"     1 -1 " "  0  " " 
   2082 "WICHITA FA~5" 161.0000 " "  0  :  1 0.984518  0.984518  -2.072586    2   11 1.1000 0.9000 19400101 21991231   0 0   1 0   0.000000   0.000000     0 0    1.10000    0.90000    0.00000 116 "WICHITA FALLS 2"     1 -1 " "  0  " " 
   2083 "WICHITA FA~6"  20.0000 " "  0  :  2 1.020000 0.984518  -2.072586    2   11 1.1000 0.9000 19400101 21991231   0 0   1 0   0.000000   0.000000     0 0    1.10000    0.90000    0.00000 116 "WICHITA FALLS 2"     1 -1 " "  0  " " 
   2084 "WICHITA FA~7"  20.0000 " "  0  :  2 1.020000 0.984518  -2.072586    2   11 1.1000 0.9000 19400101 21991231   0 0   1 0   0.000000   0.000000     0 0    1.10000    0.90000    0.00000 116 "WICHITA FALLS 2"     1 -1 " "  0  " " 
   2085 "WICHITA FA~8"  20.0000 " "  0  :  2 1.020000 0.984518  -2.072586    2   11 1.1000 0.9000 19400101 21991231   0 0   1 0   0.000000   0.000000     0 0    1.10000    0.90000    0.00000 116 "WICHITA FALLS 2"     1 -1 " "  0  " " 
   2086 "MONTAGUE 0  " 161.0000 " "  0  :  1 0.995096  0.995096  -16.197398    2   11 1.1000 0.9000 19400101 21991231   0 0   1 0   0.000000   0.000000     0 0    1.10000    0.90000    0.00000 117 "MONTAGUE"     1 -1 " "  0  " " 
   2087 "SPUR 0      " 161.0000 " "  0  :  2 1.000000 1.001404  24.217981    2   10 1.1000 0.9000 19400101 21991231   0 0   1 0   0.000000   0.000000     0 0    1.10000    0.90000    0.00000 118 "SPUR"     1 -1 " "  0  " " 
   2088 "ARCHER 1 0  " 161.0000 " "  0  :  1 0.992751  0.992751  -4.300661    2   11 1.1000 0.9000 19400101 21991231   0 0   1 0   0.000000   0.000000     0 0    1.10000    0.90000    0.00000 119 "ARCHER 1"     1 -1 " "  0  " " 
   2089 "ARCHER 1 1  "  24.0000 " "  0  :  2 1.000000 1.000000  -0.680009    2   11 1.1000 0.9000 19400101 21991231   0 0   1 0   0.000000   0.000000     0 0    1.10000    0.90000    0.00000 119 "ARCHER 1"     1 -1 " "  0  " " 
   2090 "ANNONA 0    " 161.0000 " "  0  :  1 1.030059  1.030059  -29.323109    2   11 1.1000 0.9000 19400101 21991231   0 0   1 0   0.000000   0.000000     0 0    1.10000    0.90000    0.00000 120 "ANNONA"     1 -1 " "  0  " " 
   2091 "SEYMOUR 0   " 161.0000 " "  0  :  2 1.000000 1.000000  30.710057    2   10 1.1000 0.9000 19400101 21991231   0 0   1 0   0.000000   0.000000     0 0    1.10000    0.90000    0.00000 121 "SEYMOUR"     1 -1 " "  0  " " 
   2092 "DENISON 1 0 " 161.0000 " "  0  :  1 1.028514  1.028514  -30.172695    2   11 1.1000 0.9000 19400101 21991231   0 0   1 0   0.000000   0.000000     0 0    1.10000    0.90000    0.00000 122 "DENISON 1"     1 -1 " "  0  " " 
   2093 "PANHANDLE~10" 161.0000 " "  0  :  2 1.000000 1.000000  19.007561    2   10 1.1000 0.9000 19400101 21991231   0 0   1 0   0.000000   0.000000     0 0    1.10000    0.90000    0.00000 123 "PANHANDLE 5"     1 -1 " "  0  " " 
   2094 "PANHANDLE~11"  13.8000 " "  0  :  2 1.000000 1.000000  19.444216    2   10 1.1000 0.9000 19400101 21991231   0 0   1 0   0.000000   0.000000     0 0    1.10000    0.90000    0.00000 123 "PANHANDLE 5"     1 -1 " "  0  " " 
   2095 "PANHANDLE~12"  13.8000 " "  0  :  2 1.000000 1.000000  19.223163    2   10 1.1000 0.9000 19400101 21991231   0 0   1 0   0.000000   0.000000     0 0    1.10000    0.90000    0.00000 123 "PANHANDLE 5"     1 -1 " "  0  " " 
   2096 "RALLS 1 0   " 500.0000 " "  0  :  1 1.030000 1.021331  10.629079    2   10 1.1000 0.9000 19400101 21991231   0 0   1 0   0.000000   0.000000     0 0    1.10000    0.90000    0.00000 124 "RALLS 1"     1 -1 " "  0  " " 
   2097 "RALLS 1 1   " 230.0000 " "  0  :  1 1.010435  1.010435  13.334801    2   10 1.1000 0.9000 19400101 21991231   0 0   1 0   0.000000   0.000000     0 0    1.10000    0.90000    0.00000 124 "RALLS 1"     1 -1 " "  0  " " 
   2098 "RALLS 1 2   " 161.0000 " "  0  :  1 0.978968  0.978968  22.218641    2   10 1.1000 0.9000 19400101 21991231   0 0   1 0   0.000000   0.000000     0 0    1.10000    0.90000    0.00000 124 "RALLS 1"     1 -1 " "  0  " " 
   2099 "RALLS 1 3   "  18.0000 " "  0  :  2 1.020000 1.020859  10.772620    2   10 1.1000 0.9000 19400101 21991231   0 0   1 0   0.000000   0.000000     0 0    1.10000    0.90000    0.00000 124 "RALLS 1"     1 -1 " "  0  " " 
   2100 "RALLS 1 4   "  18.0000 " "  0  :  2 1.020000 1.020000  13.251441    2   10 1.1000 0.9000 19400101 21991231   0 0   1 0   0.000000   0.000000     0 0    1.10000    0.90000    0.00000 124 "RALLS 1"     1 -1 " "  0  " " 
   2101 "SHERMAN 1 0 " 500.0000 " "  0  :  1 1.026555  1.026555  -28.418022    2   11 1.1000 0.9000 19400101 21991231   0 0   1 0   0.000000   0.000000     0 0    1.10000    0.90000    0.00000 125 "SHERMAN 1"     1 -1 " "  0  " " 
   2102 "SHERMAN 1 1 " 161.0000 " "  0  :  1 1.021168  1.021168  -28.374527    2   11 1.1000 0.9000 19400101 21991231   0 0   1 0   0.000000   0.000000     0 0    1.10000    0.90000    0.00000 125 "SHERMAN 1"     1 -1 " "  0  " " 
   2103 "SHERMAN 1 2 "  20.0000 " "  0  :  2 1.000000 1.026555  -28.418022    2   11 1.1000 0.9000 19400101 21991231   0 0   1 0   0.000000   0.000000     0 0    1.10000    0.90000    0.00000 125 "SHERMAN 1"     1 -1 " "  0  " " 
   2104 "SHERMAN 1 3 "  20.0000 " "  0  :  2 1.000000 1.026555  -28.418022    2   11 1.1000 0.9000 19400101 21991231   0 0   1 0   0.000000   0.000000     0 0    1.10000    0.90000    0.00000 125 "SHERMAN 1"     1 -1 " "  0  " " 
   2105 "SHERMAN 1 4 "  20.0000 " "  0  :  2 1.000000 1.026555  -28.418022    2   11 1.1000 0.9000 19400101 21991231   0 0   1 0   0.000000   0.000000     0 0    1.10000    0.90000    0.00000 125 "SHERMAN 1"     1 -1 " "  0  " " 
   2106 "WHITEWRIGH~1" 161.0000 " "  0  :  1 1.016004  1.016004  -30.211495    2   11 1.1000 0.9000 19400101 21991231   0 0   1 0   0.000000   0.000000     0 0    1.10000    0.90000    0.00000 126 "WHITEWRIGHT"     1 -1 " "  0  " " 
   2107 "SHERMAN 2 0 " 161.0000 " "  0  :  1 1.016972  1.016972  -28.623189    2   11 1.1000 0.9000 19400101 21991231   0 0   1 0   0.000000   0.000000     0 0    1.10000    0.90000    0.00000 127 "SHERMAN 2"     1 -1 " "  0  " " 
   2108 "ROCHESTER 0 " 161.0000 " "  0  :  1 0.995819  0.995819  8.467025    2   10 1.1000 0.9000 19400101 21991231   0 0   1 0   0.000000   0.000000     0 0    1.10000    0.90000    0.00000 128 "ROCHESTER"     1 -1 " "  0  " " 
   2109 "BURKBURNET~1" 161.0000 " "  0  :  2 1.000000 1.000000  -0.850382    2   11 1.1000 0.9000 19400101 21991231   0 0   1 0   0.000000   0.000000     0 0    1.10000    0.90000    0.00000 129 "BURKBURNETT"     1 -1 " "  0  " " 
...
branch data  [ 2663]                                          ck  se  ------------long_id_------------    st resist   react   charge   rate1  rate2  rate3  rate4 aloss  lngth 
   1001 "ODESSA 2 0  " 115.00    1064 "ODESSA 3 0  " 115.00  "1 "   1 " "  :  1  0.005240  0.035800  0.006090  221.0    0.0    0.0    0.0 0.000    0.0 /
   1    9  0.000000  0.000000  1.000000 19400101 21991231   0 1  0    0.0    0.0    0.0    0.0   1 1.000   0 0.000   0 0.000   0 0.000   0 0.000   0 0.000   0 0.000   0 0.000  0 0  0  0  0  90.000   0.000000  0.000000  " " 
   1001 "ODESSA 2 0  " 115.00    1064 "ODESSA 3 0  " 115.00  "2 "   1 " "  :  1  0.005240  0.035800  0.006090  221.0    0.0    0.0    0.0 0.000    0.0 /
...